Version 4
SHEET 1 880 680
WIRE 320 48 16 48
WIRE 16 96 16 48
WIRE 320 96 320 48
WIRE 16 240 16 176
WIRE 176 240 16 240
WIRE 320 240 320 192
WIRE 320 240 176 240
WIRE 176 288 176 240
FLAG 176 288 0
SYMBOL memristor 320 144 R0
SYMATTR InstName U1
SYMBOL voltage 16 80 R0
WINDOW 123 0 0 Left 0
WINDOW 39 0 0 Left 0
SYMATTR InstName V1
SYMATTR Value SINE(0 1.2 1 0 0 0 0)
TEXT -18 312 Left 2 !.tran 0 3s 0 3m
